Version 4
SHEET 1 1792 704
WIRE -336 -432 -368 -432
WIRE -368 -400 -368 -432
WIRE -64 -208 -144 -208
WIRE 192 -208 -64 -208
WIRE 304 -208 192 -208
WIRE 576 -208 304 -208
WIRE 304 -176 304 -208
WIRE -336 -80 -336 -432
WIRE -144 -80 -144 -208
WIRE -144 -80 -336 -80
WIRE 176 -64 -576 -64
WIRE 304 -64 304 -96
WIRE 304 -64 176 -64
WIRE 608 -64 304 -64
WIRE 736 -32 512 -32
WIRE -64 -16 -64 -208
WIRE -32 -16 -64 -16
WIRE 64 -16 48 -16
WIRE 80 -16 64 -16
WIRE 176 -16 176 -64
WIRE 176 -16 160 -16
WIRE -208 0 -496 0
WIRE 304 0 304 -64
WIRE -496 16 -496 0
WIRE 304 32 304 0
WIRE 512 32 512 -32
WIRE 672 32 560 32
WIRE -208 48 -208 0
WIRE 144 48 -208 48
WIRE 464 48 448 48
WIRE -576 64 -576 -64
WIRE -512 64 -576 64
WIRE -368 64 -368 -320
WIRE -368 64 -416 64
WIRE -272 64 -336 64
WIRE 672 64 672 32
WIRE 736 64 736 48
WIRE 736 64 672 64
WIRE -272 80 -272 64
WIRE 304 80 304 64
WIRE 368 80 368 48
WIRE 368 80 304 80
WIRE 464 80 464 48
WIRE 496 80 464 80
WIRE 576 80 576 -208
WIRE -32 112 -64 112
WIRE 112 112 48 112
WIRE 304 112 304 80
WIRE 304 112 112 112
WIRE 368 112 368 80
WIRE 464 112 464 80
WIRE 464 112 448 112
WIRE 144 144 144 48
WIRE 272 144 144 144
WIRE 192 160 192 -208
WIRE 192 160 96 160
WIRE 192 192 192 160
WIRE 736 192 512 192
WIRE 112 208 112 112
WIRE 160 208 112 208
WIRE -576 224 -576 64
WIRE -336 224 -336 64
WIRE -336 224 -576 224
WIRE -272 224 -272 160
WIRE -208 224 -208 48
WIRE -208 224 -272 224
WIRE 272 224 272 144
WIRE 272 224 224 224
WIRE 512 224 512 192
WIRE 672 224 560 224
WIRE 64 240 64 -16
WIRE 160 240 64 240
WIRE -576 272 -576 224
WIRE 192 272 192 256
WIRE 192 272 -576 272
WIRE 304 272 304 112
WIRE 496 272 304 272
WIRE 608 272 608 -64
WIRE 608 272 576 272
WIRE 672 304 672 224
WIRE 736 304 736 272
WIRE 736 304 672 304
WIRE -64 416 -64 112
WIRE -64 416 -448 416
WIRE 112 448 112 208
WIRE 112 448 -368 448
WIRE 96 528 96 160
WIRE 272 528 272 224
WIRE 528 528 400 528
WIRE 608 528 608 272
WIRE 608 528 528 528
WIRE -144 544 -144 -80
WIRE -64 544 -64 416
WIRE 400 544 400 528
WIRE 528 544 528 528
WIRE 400 560 400 544
WIRE -448 608 -448 416
WIRE -368 608 -368 448
WIRE 272 640 272 608
WIRE 400 640 400 608
WIRE 400 640 272 640
WIRE -144 656 -144 624
WIRE -64 656 -64 624
WIRE -64 656 -144 656
WIRE 96 672 96 608
WIRE 528 672 528 608
WIRE 528 672 96 672
WIRE 608 672 608 528
FLAG 608 672 0
SYMBOL OpAmps\\UniversalOpAmp2 192 224 R0
SYMATTR InstName U1
SYMBOL LED 416 608 R180
WINDOW 0 24 64 Left 2
WINDOW 3 24 0 Left 2
SYMATTR InstName D1
SYMBOL LED 544 608 R180
WINDOW 0 24 64 Left 2
WINDOW 3 24 0 Left 2
SYMATTR InstName D2
SYMBOL cap 288 0 R0
WINDOW 3 -18 -18 VRight 2
SYMATTR InstName C1
SYMATTR Value 2250µ
SYMBOL res 64 -32 R90
WINDOW 0 0 56 VBottom 2
WINDOW 3 32 56 VTop 2
SYMATTR InstName R1
SYMATTR Value 33k
SYMBOL res 176 -32 R90
WINDOW 0 0 56 VBottom 2
WINDOW 3 32 56 VTop 2
SYMATTR InstName R2
SYMATTR Value 33k
SYMBOL res 64 96 R90
WINDOW 0 0 56 VBottom 2
WINDOW 3 32 56 VTop 2
SYMATTR InstName R3
SYMATTR Value 1Meg
SYMBOL res -256 176 R180
WINDOW 0 36 76 Left 2
WINDOW 3 36 40 Left 2
SYMATTR InstName R5
SYMATTR Value 33k
SYMBOL res -128 640 R180
WINDOW 0 36 76 Left 2
WINDOW 3 36 40 Left 2
SYMATTR InstName 56k
SYMATTR Value 56k
SYMBOL res -48 640 R180
WINDOW 0 36 76 Left 2
WINDOW 3 36 40 Left 2
SYMATTR InstName R7
SYMATTR Value 56k
SYMBOL res 112 624 R180
WINDOW 0 36 76 Left 2
WINDOW 3 36 40 Left 2
SYMATTR InstName R8
SYMATTR Value 330
SYMBOL res 288 624 R180
WINDOW 0 46 70 Left 2
WINDOW 3 36 40 Left 2
SYMATTR InstName R9
SYMATTR Value 330
SYMBOL nmos -416 16 R90
SYMATTR InstName M1
SYMATTR Value Si4336DY
SYMBOL res 464 32 R90
WINDOW 0 3 25 VBottom 2
WINDOW 3 -24 86 VTop 2
SYMATTR InstName R11
SYMATTR Value 25
SYMBOL res 464 96 R90
WINDOW 0 60 3 VBottom 2
WINDOW 3 35 82 VTop 2
SYMATTR InstName R12
SYMATTR Value 25
SYMBOL voltage 304 -192 R0
WINDOW 123 0 0 Left 0
WINDOW 39 0 0 Left 0
SYMATTR InstName V1
SYMATTR Value 12
SYMBOL voltage 736 -48 R0
WINDOW 123 0 0 Left 0
WINDOW 39 0 0 Left 0
SYMATTR InstName V2
SYMATTR Value PULSE(0 10 0 1n 1n 20 800)
SYMBOL sw 592 80 R90
SYMATTR InstName SW2
SYMATTR Value SW2
SYMBOL sw 592 272 R90
SYMATTR InstName SW1
SYMATTR Value SW2
SYMBOL voltage 736 176 R0
WINDOW 123 0 0 Left 0
WINDOW 39 0 0 Left 0
SYMATTR InstName V3
SYMATTR Value PULSE(0 10 400 1n 1n 1 300)
SYMBOL res -384 -416 R0
SYMATTR InstName R4
SYMATTR Value 12
SYMBOL res -352 592 R90
WINDOW 0 0 56 VBottom 2
WINDOW 3 32 56 VTop 2
SYMATTR InstName R6
SYMATTR Value 10
TEXT -954 418 Left 2 !.tran 0 1000 0
TEXT -952 384 Left 2 !.model SW2 SW(Ron=1m Roff=1000Meg Vt=2 Vh=-.5)
TEXT -952 352 Left 2 !.ic V(n012) = 0
TEXT -528 -368 Left 2 ;MOTOR,
TEXT -432 688 Left 2 ;POT (0-1MEG)
TEXT 664 360 Left 2 ;TURN ON SW
TEXT 672 104 Left 2 ;RESET SW
